Version 4
SHEET 1 880 680
WIRE 384 32 368 32
WIRE 480 32 464 32
WIRE 208 112 144 112
WIRE 256 112 208 112
WIRE 368 112 368 32
WIRE 368 112 336 112
WIRE 384 112 368 112
WIRE 480 112 480 32
WIRE 480 112 464 112
WIRE 640 112 480 112
WIRE 656 112 640 112
FLAG 144 192 0
FLAG 368 176 0
FLAG 480 176 0
FLAG 640 112 Out
FLAG 208 112 in
SYMBOL voltage 144 96 R0
WINDOW 123 24 124 Left 2
WINDOW 39 0 0 Left 0
SYMATTR InstName V1
SYMATTR Value SINE(1 1 1000k)
SYMATTR Value2 AC 1
SYMBOL cap 352 112 R0
SYMATTR InstName C1
SYMATTR Value 2.2µ
SYMATTR SpiceLine Rser=10m
SYMBOL cap 464 112 R0
SYMATTR InstName C2
SYMATTR Value 20µ
SYMBOL ind 240 128 R270
WINDOW 0 32 56 VTop 2
WINDOW 3 5 56 VBottom 2
SYMATTR InstName L1
SYMATTR Value 60µ
SYMATTR SpiceLine Rser=1
SYMBOL ind 368 128 R270
WINDOW 0 32 56 VTop 2
WINDOW 3 5 56 VBottom 2
SYMATTR InstName L2
SYMATTR Value 1µ
SYMATTR SpiceLine Rser=150m
TEXT 110 240 Left 2 !;ac dec 1m 1 10Meg
TEXT 704 280 Left 2 !.tran 1m
