Version 4
SHEET 1 1516 892
WIRE 272 -240 160 -240
WIRE 448 -240 336 -240
WIRE 64 -128 32 -128
WIRE 160 -128 160 -240
WIRE 160 -128 144 -128
WIRE 272 -128 160 -128
WIRE 448 -128 448 -240
WIRE 448 -128 352 -128
WIRE 32 -96 32 -128
WIRE -192 -48 -192 -64
WIRE -80 -48 -80 -64
WIRE 160 32 160 -128
WIRE 208 32 160 32
WIRE -192 48 -192 32
WIRE -80 48 -80 32
WIRE 448 64 448 -128
WIRE 448 64 368 64
WIRE 544 64 448 64
WIRE 16 96 -32 96
WIRE 96 96 16 96
WIRE 208 96 176 96
WIRE -32 128 -32 96
WIRE -32 240 -32 208
WIRE -32 448 -128 448
WIRE 128 448 32 448
WIRE -256 544 -288 544
WIRE -128 544 -128 448
WIRE -128 544 -176 544
WIRE -112 544 -128 544
WIRE -48 544 -112 544
WIRE 128 544 128 448
WIRE 128 544 32 544
WIRE -288 576 -288 544
WIRE -128 656 -128 544
WIRE -80 656 -128 656
WIRE 128 688 128 544
WIRE 128 688 80 688
WIRE 336 688 128 688
WIRE 528 688 416 688
WIRE 672 688 528 688
WIRE 704 688 672 688
WIRE 528 704 528 688
WIRE -80 720 -288 720
WIRE 672 720 672 688
WIRE -288 768 -288 720
FLAG -80 48 0
FLAG -80 -64 -V
FLAG -192 -64 +V
FLAG -192 48 0
FLAG 240 -16 +V
FLAG 240 144 -V
FLAG -32 240 0
FLAG 32 -96 0
FLAG 544 64 OUT
FLAG -48 608 +V
FLAG -48 768 -V
FLAG 704 688 Vout2
FLAG -288 848 0
FLAG -288 576 0
FLAG 528 784 0
FLAG 672 784 0
FLAG 16 96 IN
FLAG -112 544 fb
SYMBOL voltage -80 -64 R0
WINDOW 123 0 0 Left 0
WINDOW 39 0 0 Left 0
SYMATTR InstName V1
SYMATTR Value -5
SYMBOL voltage -192 -64 R0
WINDOW 123 0 0 Left 0
WINDOW 39 0 0 Left 0
SYMATTR InstName V3
SYMATTR Value 70
SYMBOL LTC6090 272 64 R0
SYMATTR InstName U3
SYMBOL res 160 -144 R90
WINDOW 0 0 56 VBottom 2
WINDOW 3 32 56 VTop 2
SYMATTR InstName Ri
SYMATTR Value 4k7
SYMBOL res 368 -144 R90
WINDOW 0 0 56 VBottom 2
WINDOW 3 32 56 VTop 2
SYMATTR InstName Rf
SYMATTR Value 51.7k
SYMBOL voltage -32 112 R0
WINDOW 123 35 92 Left 2
WINDOW 39 0 0 Left 0
WINDOW 3 43 59 Left 2
WINDOW 0 39 31 Left 2
SYMATTR Value2 AC 1
SYMATTR Value 1
SYMATTR InstName V4
SYMBOL LTC6090 -16 688 R0
SYMATTR InstName U1
SYMBOL voltage -288 752 R0
WINDOW 123 24 124 Left 2
WINDOW 39 0 0 Left 0
SYMATTR Value2 AC 1
SYMATTR InstName V2
SYMATTR Value 5
SYMBOL res -160 528 R90
WINDOW 0 0 56 VBottom 2
WINDOW 3 32 56 VTop 2
SYMATTR InstName R1
SYMATTR Value 4k7
SYMBOL res 48 528 R90
WINDOW 0 0 56 VBottom 2
WINDOW 3 31 32 VTop 2
SYMATTR InstName R2
SYMATTR Value 51.7k
SYMBOL res 432 672 R90
WINDOW 0 0 56 VBottom 2
WINDOW 3 32 56 VTop 2
SYMATTR InstName R6
SYMATTR Value 7.5Meg
SYMBOL res 544 800 R180
WINDOW 0 36 76 Left 2
WINDOW 3 36 40 Left 2
SYMATTR InstName R7
SYMATTR Value 330k
SYMBOL cap 656 720 R0
WINDOW 0 27 17 Left 2
SYMATTR InstName C2
SYMATTR Value 100p
SYMBOL cap 32 432 R90
WINDOW 0 0 32 VBottom 2
WINDOW 3 32 32 VTop 2
SYMATTR InstName C1
SYMATTR Value 300p
SYMBOL res 192 80 R90
WINDOW 0 0 56 VBottom 2
WINDOW 3 32 56 VTop 2
SYMATTR InstName Rcomp
SYMATTR Value 4300
SYMBOL cap 336 -256 R90
WINDOW 0 0 32 VBottom 2
WINDOW 3 32 32 VTop 2
SYMATTR InstName C3
SYMATTR Value 270p
TEXT 352 464 Left 2 !;tran 80m
TEXT 352 440 Left 2 ;.dc dec V2 0 10 1m
TEXT 352 416 Left 2 !.noise V(n002) V2 dec 5 1 1Meg
TEXT 352 384 Left 2 !;ac dec 100 1 10Meg
TEXT 360 504 Left 2 !;dc V2 1m 5 100
